* File: adder.pex.sp.pex
* Created: Sun Nov 10 00:17:27 2024
* Program "Calibre xRC"
* Version "v2022.3_33.19"
* Nominal Temperature: 27C
* Circuit Temperature: 27C
* 
.subckt PM_ADDER%C1 35 39 44 49 52 57 60 65
c0 60 0 1.9514f
c1 52 0 1.98918f
c2 44 0 1.97553f
c3 34 0 0.0444611f
c4 32 0 1.91628f
c5 22 0 0.387866f
c6 18 0 0.357407f
c7 12 0 0.323885f
c8 8 0 0.861479f
c9 6 0 0.0257007f
c10 4 0 1.36942f
r11 63 65 112.275
r12 60 63 52.725
r13 55 57 112.275
r14 52 55 52.725
r15 47 49 112.275
r16 44 47 52.725
r17 39 41 7.056
r18 35 37 5.4173
r19 32 63 13.2552
r20 30 55 13.2552
r21 30 32 0.933333
r22 28 47 13.2552
r23 28 30 2.33333
r24 25 28 0.177333
r25 22 37 16.3327
r26 20 34 0.0697536
r27 20 22 1.0535
r28 18 41 16.3327
r29 16 34 0.0697536
r30 16 18 1.02317
r31 12 34 0.0136882
r32 12 14 0.19768
r33 8 25 8
r34 6 8 2.49058
r35 4 14 8
r36 2 6 0.0363174
r37 2 4 4.51208
.ends

.subckt PM_ADDER%C2 35 39 44 49 52 57 60 65
c0 60 0 1.9514f
c1 52 0 1.98918f
c2 44 0 1.97553f
c3 34 0 0.0444611f
c4 32 0 1.91628f
c5 22 0 0.316141f
c6 18 0 0.465455f
c7 12 0 0.32396f
c8 8 0 0.863198f
c9 6 0 0.0322444f
c10 4 0 1.27123f
r11 63 65 112.275
r12 60 63 52.725
r13 55 57 112.275
r14 52 55 52.725
r15 47 49 112.275
r16 44 47 52.725
r17 39 41 7.056
r18 35 37 5.4173
r19 32 63 13.2552
r20 30 55 13.2552
r21 30 32 0.933333
r22 28 47 13.2552
r23 28 30 2.33333
r24 25 28 0.177333
r25 22 37 16.3327
r26 20 34 0.0697536
r27 20 22 0.8435
r28 18 41 16.3327
r29 16 34 0.0697536
r30 16 18 1.23317
r31 12 34 0.0136882
r32 12 14 0.19768
r33 8 25 8
r34 6 8 2.49058
r35 4 14 8
r36 2 6 0.0363174
r37 2 4 4.20875
.ends

.subckt PM_ADDER%C3 35 39 44 49 52 57 60 65
c0 60 0 1.9514f
c1 52 0 1.98918f
c2 44 0 1.97553f
c3 34 0 0.0444611f
c4 32 0 1.91628f
c5 22 0 0.387866f
c6 18 0 0.393731f
c7 12 0 0.325871f
c8 8 0 0.861412f
c9 6 0 0.0199525f
c10 4 0 1.37695f
r11 63 65 112.275
r12 60 63 52.725
r13 55 57 112.275
r14 52 55 52.725
r15 47 49 112.275
r16 44 47 52.725
r17 39 41 7.056
r18 35 37 5.4173
r19 32 63 13.2552
r20 30 55 13.2552
r21 30 32 0.933333
r22 28 47 13.2552
r23 28 30 2.33333
r24 25 28 0.177333
r25 22 37 16.3327
r26 20 34 0.0697536
r27 20 22 1.0535
r28 18 41 16.3327
r29 16 34 0.0697536
r30 16 18 1.02317
r31 12 34 0.0136882
r32 12 14 0.19768
r33 8 25 8
r34 6 8 2.49058
r35 4 14 8
r36 2 6 0.0363174
r37 2 4 4.51208
.ends

.subckt PM_ADDER%COUT 6 10 14
c0 3 0 0.861449f
r1 14 16 7.056
r2 10 12 5.4173
r3 8 12 16.3327
r4 6 8 0.936833
r5 3 16 16.3327
r6 3 6 1.37317
.ends

.subckt PM_ADDER%A1 15 21 26 33 38 41 46 49 54
c0 49 0 1.88442f
c1 41 0 1.76638f
c2 33 0 1.753f
c3 21 0 1.88484f
c4 19 0 0.0488739f
c5 18 0 0.0769606f
c6 16 0 0.0665864f
c7 12 0 2.15383f
r8 52 54 82.275
r9 49 52 82.725
r10 44 46 82.275
r11 41 44 82.725
r12 36 38 82.275
r13 33 36 82.725
r14 24 26 82.275
r15 21 24 82.725
r16 18 19 0.0441257
r17 15 18 0.00223404
r18 15 16 0.0418917
r19 12 52 13.2552
r20 10 44 13.2552
r21 10 12 2.8
r22 8 36 13.2552
r23 8 10 0.466667
r24 8 19 1.58317
r25 4 24 13.2552
r26 4 16 0.173833
.ends

.subckt PM_ADDER%A2 15 21 26 33 38 41 46 49 54
c0 49 0 1.88442f
c1 41 0 1.76637f
c2 33 0 1.74719f
c3 21 0 1.93013f
c4 19 0 0.0488922f
c5 18 0 0.0769606f
c6 16 0 0.0666158f
c7 12 0 2.15386f
r8 52 54 82.275
r9 49 52 82.725
r10 44 46 82.275
r11 41 44 82.725
r12 36 38 82.275
r13 33 36 82.725
r14 24 26 82.275
r15 21 24 82.725
r16 18 19 0.0441257
r17 15 18 0.00223404
r18 15 16 0.0418917
r19 12 52 13.2552
r20 10 44 13.2552
r21 10 12 2.8
r22 8 36 13.2552
r23 8 10 0.466667
r24 8 19 1.58317
r25 4 24 13.2552
r26 4 16 0.173833
.ends

.subckt PM_ADDER%A3 15 21 26 33 38 41 46 49 54
c0 49 0 1.88442f
c1 41 0 1.76637f
c2 33 0 1.74719f
c3 21 0 1.93013f
c4 19 0 0.0488922f
c5 18 0 0.0769606f
c6 16 0 0.0666158f
c7 12 0 2.15386f
r8 52 54 82.275
r9 49 52 82.725
r10 44 46 82.275
r11 41 44 82.725
r12 36 38 82.275
r13 33 36 82.725
r14 24 26 82.275
r15 21 24 82.725
r16 18 19 0.0441257
r17 15 18 0.00223404
r18 15 16 0.0418917
r19 12 52 13.2552
r20 10 44 13.2552
r21 10 12 2.8
r22 8 36 13.2552
r23 8 10 0.466667
r24 8 19 1.58317
r25 4 24 13.2552
r26 4 16 0.173833
.ends

.subckt PM_ADDER%A4 15 21 26 33 38 41 46 49 54
c0 49 0 1.88442f
c1 41 0 1.76637f
c2 33 0 1.74719f
c3 21 0 1.93013f
c4 19 0 0.0488922f
c5 18 0 0.0769606f
c6 16 0 0.0666158f
c7 12 0 2.15386f
r8 52 54 82.275
r9 49 52 82.725
r10 44 46 82.275
r11 41 44 82.725
r12 36 38 82.275
r13 33 36 82.725
r14 24 26 82.275
r15 21 24 82.725
r16 18 19 0.0441257
r17 15 18 0.00223404
r18 15 16 0.0418917
r19 12 52 13.2552
r20 10 44 13.2552
r21 10 12 2.8
r22 8 36 13.2552
r23 8 10 0.466667
r24 8 19 1.58317
r25 4 24 13.2552
r26 4 16 0.173833
.ends

.subckt PM_ADDER%XFA1/N7 12 15 16
c0 10 0 0.127776f
c1 7 0 0.0314763f
c2 6 0 0.411285f
c3 4 0 0.11274f
r4 16 18 6.435
r5 15 18 6.165
r6 12 14 6.165
r7 10 18 16.3327
r8 8 10 0.288167
r9 6 8 0.039111
r10 6 7 0.863333
r11 4 14 16.3327
r12 2 7 0.039111
r13 2 4 0.288167
.ends

.subckt PM_ADDER%XFA1/N1 10 13 14
c0 7 0 0.251045f
c1 6 0 0.0372394f
c2 5 0 0.475152f
c3 2 0 0.216763f
r4 14 16 2.145
r5 13 16 2.055
r6 10 12 5.11218
r7 9 16 16.3327
r8 7 9 0.435167
r9 5 7 0.039111
r10 5 6 0.863333
r11 4 12 16.3327
r12 2 6 0.039111
r13 2 4 0.435167
.ends

.subckt PM_ADDER%XFA2/N7 12 15 16
c0 10 0 0.127776f
c1 7 0 0.0314853f
c2 6 0 0.411405f
c3 4 0 0.11274f
r4 16 18 6.435
r5 15 18 6.165
r6 12 14 6.165
r7 10 18 16.3327
r8 8 10 0.288167
r9 6 8 0.039111
r10 6 7 0.863333
r11 4 14 16.3327
r12 2 7 0.039111
r13 2 4 0.288167
.ends

.subckt PM_ADDER%XFA2/N1 10 13 14
c0 7 0 0.251045f
c1 6 0 0.0372394f
c2 5 0 0.475152f
c3 2 0 0.216763f
r4 14 16 2.145
r5 13 16 2.055
r6 10 12 5.11218
r7 9 16 16.3327
r8 7 9 0.435167
r9 5 7 0.039111
r10 5 6 0.863333
r11 4 12 16.3327
r12 2 6 0.039111
r13 2 4 0.435167
.ends

.subckt PM_ADDER%XFA3/N7 12 15 16
c0 10 0 0.127776f
c1 7 0 0.0314853f
c2 6 0 0.411405f
c3 4 0 0.11274f
r4 16 18 6.435
r5 15 18 6.165
r6 12 14 6.165
r7 10 18 16.3327
r8 8 10 0.288167
r9 6 8 0.039111
r10 6 7 0.863333
r11 4 14 16.3327
r12 2 7 0.039111
r13 2 4 0.288167
.ends

.subckt PM_ADDER%XFA3/N1 10 13 14
c0 7 0 0.251045f
c1 6 0 0.0372394f
c2 5 0 0.475152f
c3 2 0 0.216763f
r4 14 16 2.145
r5 13 16 2.055
r6 10 12 5.11218
r7 9 16 16.3327
r8 7 9 0.435167
r9 5 7 0.039111
r10 5 6 0.863333
r11 4 12 16.3327
r12 2 6 0.039111
r13 2 4 0.435167
.ends

.subckt PM_ADDER%XFA4/N7 12 15 16
c0 10 0 0.127776f
c1 7 0 0.0314853f
c2 6 0 0.411405f
c3 4 0 0.11274f
r4 16 18 6.435
r5 15 18 6.165
r6 12 14 6.165
r7 10 18 16.3327
r8 8 10 0.288167
r9 6 8 0.039111
r10 6 7 0.863333
r11 4 14 16.3327
r12 2 7 0.039111
r13 2 4 0.288167
.ends

.subckt PM_ADDER%XFA4/N1 10 13 14
c0 7 0 0.251045f
c1 6 0 0.0372394f
c2 5 0 0.475152f
c3 2 0 0.216763f
r4 14 16 2.145
r5 13 16 2.055
r6 10 12 5.11218
r7 9 16 16.3327
r8 7 9 0.435167
r9 5 7 0.039111
r10 5 6 0.863333
r11 4 12 16.3327
r12 2 6 0.039111
r13 2 4 0.435167
.ends

.subckt PM_ADDER%B1 15 21 26 33 38 41 46 49 54
c0 49 0 1.90682f
c1 41 0 1.98762f
c2 33 0 1.91433f
c3 21 0 1.982f
c4 19 0 0.0588501f
c5 18 0 0.0813482f
c6 16 0 0.0950199f
c7 12 0 2.02588f
r8 52 54 97.275
r9 49 52 67.725
r10 44 46 97.275
r11 41 44 67.725
r12 36 38 97.275
r13 33 36 67.725
r14 24 26 97.275
r15 21 24 67.725
r16 18 19 0.0441257
r17 15 18 0.00223404
r18 15 16 0.0418917
r19 12 52 13.2552
r20 10 44 13.2552
r21 10 12 1.86667
r22 8 36 13.2552
r23 8 10 1.4
r24 8 19 0.6265
r25 4 24 13.2552
r26 4 16 0.197167
.ends

.subckt PM_ADDER%B2 15 21 26 33 38 41 46 49 54
c0 49 0 1.90682f
c1 41 0 1.98762f
c2 33 0 1.90919f
c3 21 0 2.02555f
c4 19 0 0.0659495f
c5 18 0 0.082064f
c6 16 0 0.0962598f
c7 12 0 2.02929f
r8 52 54 97.275
r9 49 52 67.725
r10 44 46 97.275
r11 41 44 67.725
r12 36 38 97.275
r13 33 36 67.725
r14 24 26 97.275
r15 21 24 67.725
r16 18 19 0.0441257
r17 15 18 0.00223404
r18 15 16 0.0418917
r19 12 52 13.2552
r20 10 44 13.2552
r21 10 12 1.86667
r22 8 36 13.2552
r23 8 10 1.4
r24 8 19 0.6265
r25 4 24 13.2552
r26 4 16 0.197167
.ends

.subckt PM_ADDER%B3 15 21 26 33 38 41 46 49 54
c0 49 0 1.90682f
c1 41 0 1.98762f
c2 33 0 1.90919f
c3 21 0 2.02555f
c4 19 0 0.0659495f
c5 18 0 0.082064f
c6 16 0 0.0962598f
c7 12 0 2.02929f
r8 52 54 97.275
r9 49 52 67.725
r10 44 46 97.275
r11 41 44 67.725
r12 36 38 97.275
r13 33 36 67.725
r14 24 26 97.275
r15 21 24 67.725
r16 18 19 0.0441257
r17 15 18 0.00223404
r18 15 16 0.0418917
r19 12 52 13.2552
r20 10 44 13.2552
r21 10 12 1.86667
r22 8 36 13.2552
r23 8 10 1.4
r24 8 19 0.6265
r25 4 24 13.2552
r26 4 16 0.197167
.ends

.subckt PM_ADDER%B4 15 21 26 33 38 41 46 49 54
c0 49 0 1.90682f
c1 41 0 1.98762f
c2 33 0 1.90919f
c3 21 0 2.02555f
c4 19 0 0.0659495f
c5 18 0 0.082064f
c6 16 0 0.0962598f
c7 12 0 2.02929f
r8 52 54 97.275
r9 49 52 67.725
r10 44 46 97.275
r11 41 44 67.725
r12 36 38 97.275
r13 33 36 67.725
r14 24 26 97.275
r15 21 24 67.725
r16 18 19 0.0441257
r17 15 18 0.00223404
r18 15 16 0.0418917
r19 12 52 13.2552
r20 10 44 13.2552
r21 10 12 1.86667
r22 8 36 13.2552
r23 8 10 1.4
r24 8 19 0.6265
r25 4 24 13.2552
r26 4 16 0.197167
.ends

.subckt PM_ADDER%XFA1/COB 26 27 30 31 35 40 43 48
c0 43 0 1.91032f
c1 35 0 1.67685f
c2 25 0 0.0266694f
c3 24 0 0.0127298f
c4 22 0 1.32387f
c5 18 0 0.273503f
c6 14 0 0.208944f
c7 11 0 0.0232996f
c8 10 0 0.727256f
c9 8 0 0.656956f
c10 7 0 0.334367f
c11 2 0 0.215432f
r12 46 48 125.025
r13 43 46 39.975
r14 38 40 125.025
r15 35 38 39.975
r16 31 33 6.435
r17 30 33 6.165
r18 27 29 2.145
r19 26 29 2.055
r20 22 46 13.2552
r21 20 25 0.0296412
r22 20 22 2.5165
r23 18 29 16.3327
r24 16 18 0.6335
r25 14 33 16.3327
r26 12 25 0.00770322
r27 12 14 0.5565
r28 10 16 0.039111
r29 10 11 1.435
r30 9 24 0.0296412
r31 8 25 0.0296412
r32 8 9 1.435
r33 7 11 0.039111
r34 6 24 0.00770322
r35 6 7 0.98
r36 4 38 13.2552
r37 2 24 0.0296412
r38 2 4 0.638167
.ends

.subckt PM_ADDER%XFA2/COB 26 27 30 31 35 40 43 48
c0 43 0 1.91032f
c1 35 0 1.72394f
c2 25 0 0.0266694f
c3 24 0 0.0127298f
c4 22 0 1.31989f
c5 18 0 0.273503f
c6 14 0 0.208944f
c7 11 0 0.0232996f
c8 10 0 0.727256f
c9 8 0 0.683356f
c10 7 0 0.35785f
c11 2 0 0.221524f
r12 46 48 125.025
r13 43 46 39.975
r14 38 40 125.025
r15 35 38 39.975
r16 31 33 6.435
r17 30 33 6.165
r18 27 29 2.145
r19 26 29 2.055
r20 22 46 13.2552
r21 20 25 0.0296412
r22 20 22 2.5165
r23 18 29 16.3327
r24 16 18 0.6335
r25 14 33 16.3327
r26 12 25 0.00770322
r27 12 14 0.5565
r28 10 16 0.039111
r29 10 11 1.435
r30 9 24 0.0296412
r31 8 25 0.0296412
r32 8 9 1.435
r33 7 11 0.039111
r34 6 24 0.00770322
r35 6 7 0.98
r36 4 38 13.2552
r37 2 24 0.0296412
r38 2 4 0.638167
.ends

.subckt PM_ADDER%XFA3/COB 26 27 30 31 35 40 43 48
c0 43 0 1.91032f
c1 35 0 1.72394f
c2 25 0 0.0266694f
c3 24 0 0.0127298f
c4 22 0 1.31989f
c5 18 0 0.273503f
c6 14 0 0.208944f
c7 11 0 0.0232996f
c8 10 0 0.727256f
c9 8 0 0.683356f
c10 7 0 0.35785f
c11 2 0 0.221524f
r12 46 48 125.025
r13 43 46 39.975
r14 38 40 125.025
r15 35 38 39.975
r16 31 33 6.435
r17 30 33 6.165
r18 27 29 2.145
r19 26 29 2.055
r20 22 46 13.2552
r21 20 25 0.0296412
r22 20 22 2.5165
r23 18 29 16.3327
r24 16 18 0.6335
r25 14 33 16.3327
r26 12 25 0.00770322
r27 12 14 0.5565
r28 10 16 0.039111
r29 10 11 1.435
r30 9 24 0.0296412
r31 8 25 0.0296412
r32 8 9 1.435
r33 7 11 0.039111
r34 6 24 0.00770322
r35 6 7 0.98
r36 4 38 13.2552
r37 2 24 0.0296412
r38 2 4 0.638167
.ends

.subckt PM_ADDER%XFA4/COB 26 27 30 31 35 40 43 48
c0 43 0 1.91032f
c1 35 0 1.72394f
c2 25 0 0.0266694f
c3 24 0 0.0127298f
c4 22 0 1.31989f
c5 18 0 0.273503f
c6 14 0 0.208944f
c7 11 0 0.0232996f
c8 10 0 0.727256f
c9 8 0 0.683356f
c10 7 0 0.35785f
c11 2 0 0.221524f
r12 46 48 125.025
r13 43 46 39.975
r14 38 40 125.025
r15 35 38 39.975
r16 31 33 6.435
r17 30 33 6.165
r18 27 29 2.145
r19 26 29 2.055
r20 22 46 13.2552
r21 20 25 0.0296412
r22 20 22 2.5165
r23 18 29 16.3327
r24 16 18 0.6335
r25 14 33 16.3327
r26 12 25 0.00770322
r27 12 14 0.5565
r28 10 16 0.039111
r29 10 11 1.435
r30 9 24 0.0296412
r31 8 25 0.0296412
r32 8 9 1.435
r33 7 11 0.039111
r34 6 24 0.00770322
r35 6 7 0.98
r36 4 38 13.2552
r37 2 24 0.0296412
r38 2 4 0.638167
.ends

.subckt PM_ADDER%CIN 13 19 24 31 36 39 44
c0 39 0 1.9514f
c1 31 0 1.98918f
c2 19 0 1.97553f
c3 17 0 0.0727803f
c4 16 0 0.095569f
c5 14 0 0.391514f
c6 10 0 1.37302f
r7 42 44 112.275
r8 39 42 52.725
r9 34 36 112.275
r10 31 34 52.725
r11 22 24 112.275
r12 19 22 52.725
r13 16 17 0.0441257
r14 13 16 0.0171277
r15 13 14 0.026998
r16 10 42 13.2552
r17 8 34 13.2552
r18 8 10 0.933333
r19 8 17 1.55983
r20 4 22 13.2552
r21 4 14 0.663833
.ends

.subckt PM_ADDER%XFA1/N9 12 13 16 17
c0 10 0 0.127776f
c1 7 0 0.0323239f
c2 6 0 0.4107f
c3 4 0 0.122503f
r4 17 19 6.435
r5 16 19 6.165
r6 13 15 6.435
r7 12 15 6.165
r8 10 19 16.3327
r9 8 10 0.288167
r10 6 8 0.039111
r11 6 7 0.863333
r12 4 15 16.3327
r13 2 7 0.039111
r14 2 4 0.288167
.ends

.subckt PM_ADDER%XFA1/N3 10 11 14 15
c0 7 0 0.251045f
c1 6 0 0.026884f
c2 5 0 0.378006f
c3 2 0 0.242668f
r4 15 17 2.145
r5 14 17 2.055
r6 11 13 2.145
r7 10 13 2.055
r8 9 17 16.3327
r9 7 9 0.435167
r10 5 7 0.039111
r11 5 6 0.863333
r12 4 13 16.3327
r13 2 6 0.039111
r14 2 4 0.435167
.ends

.subckt PM_ADDER%XFA2/N9 12 13 16 17
c0 10 0 0.127776f
c1 7 0 0.0323239f
c2 6 0 0.4107f
c3 4 0 0.122503f
r4 17 19 6.435
r5 16 19 6.165
r6 13 15 6.435
r7 12 15 6.165
r8 10 19 16.3327
r9 8 10 0.288167
r10 6 8 0.039111
r11 6 7 0.863333
r12 4 15 16.3327
r13 2 7 0.039111
r14 2 4 0.288167
.ends

.subckt PM_ADDER%XFA2/N3 10 11 14 15
c0 7 0 0.251045f
c1 6 0 0.026884f
c2 5 0 0.378006f
c3 2 0 0.242668f
r4 15 17 2.145
r5 14 17 2.055
r6 11 13 2.145
r7 10 13 2.055
r8 9 17 16.3327
r9 7 9 0.435167
r10 5 7 0.039111
r11 5 6 0.863333
r12 4 13 16.3327
r13 2 6 0.039111
r14 2 4 0.435167
.ends

.subckt PM_ADDER%XFA3/N9 12 13 16 17
c0 10 0 0.127776f
c1 7 0 0.0323239f
c2 6 0 0.4107f
c3 4 0 0.122503f
r4 17 19 6.435
r5 16 19 6.165
r6 13 15 6.435
r7 12 15 6.165
r8 10 19 16.3327
r9 8 10 0.288167
r10 6 8 0.039111
r11 6 7 0.863333
r12 4 15 16.3327
r13 2 7 0.039111
r14 2 4 0.288167
.ends

.subckt PM_ADDER%XFA3/N3 10 11 14 15
c0 7 0 0.251045f
c1 6 0 0.026884f
c2 5 0 0.378006f
c3 2 0 0.242668f
r4 15 17 2.145
r5 14 17 2.055
r6 11 13 2.145
r7 10 13 2.055
r8 9 17 16.3327
r9 7 9 0.435167
r10 5 7 0.039111
r11 5 6 0.863333
r12 4 13 16.3327
r13 2 6 0.039111
r14 2 4 0.435167
.ends

.subckt PM_ADDER%XFA4/N9 12 13 16 17
c0 10 0 0.127776f
c1 7 0 0.0323239f
c2 6 0 0.4107f
c3 4 0 0.122503f
r4 17 19 6.435
r5 16 19 6.165
r6 13 15 6.435
r7 12 15 6.165
r8 10 19 16.3327
r9 8 10 0.288167
r10 6 8 0.039111
r11 6 7 0.863333
r12 4 15 16.3327
r13 2 7 0.039111
r14 2 4 0.288167
.ends

.subckt PM_ADDER%XFA4/N3 10 11 14 15
c0 7 0 0.251045f
c1 6 0 0.026884f
c2 5 0 0.378006f
c3 2 0 0.242668f
r4 15 17 2.145
r5 14 17 2.055
r6 11 13 2.145
r7 10 13 2.055
r8 9 17 16.3327
r9 7 9 0.435167
r10 5 7 0.039111
r11 5 6 0.863333
r12 4 13 16.3327
r13 2 6 0.039111
r14 2 4 0.435167
.ends

.subckt PM_ADDER%XFA1/SB 18 19 22 23 27 34
c0 27 0 1.73952f
c1 16 0 0.618599f
c2 14 0 0.0307199f
c3 12 0 0.588286f
c4 10 0 0.0314967f
c5 7 0 0.200815f
c6 5 0 0.111032f
r7 32 34 44.775
r8 30 32 97.5
r9 27 30 22.725
r10 23 25 6.435
r11 22 25 6.165
r12 19 21 2.145
r13 18 21 2.055
r14 16 32 13.2552
r15 14 16 1.58317
r16 12 30 13.2552
r17 10 12 1.58317
r18 9 21 16.3327
r19 7 14 0.039111
r20 7 9 0.435167
r21 5 25 16.3327
r22 3 10 0.039111
r23 3 5 0.288167
.ends

.subckt PM_ADDER%XFA2/SB 18 19 22 23 27 34
c0 27 0 1.73952f
c1 16 0 0.618599f
c2 14 0 0.0307199f
c3 12 0 0.588286f
c4 10 0 0.0314967f
c5 7 0 0.200815f
c6 5 0 0.111032f
r7 32 34 44.775
r8 30 32 97.5
r9 27 30 22.725
r10 23 25 6.435
r11 22 25 6.165
r12 19 21 2.145
r13 18 21 2.055
r14 16 32 13.2552
r15 14 16 1.58317
r16 12 30 13.2552
r17 10 12 1.58317
r18 9 21 16.3327
r19 7 14 0.039111
r20 7 9 0.435167
r21 5 25 16.3327
r22 3 10 0.039111
r23 3 5 0.288167
.ends

.subckt PM_ADDER%XFA3/SB 18 19 22 23 27 34
c0 27 0 1.73952f
c1 16 0 0.618599f
c2 14 0 0.0307199f
c3 12 0 0.588286f
c4 10 0 0.0314967f
c5 7 0 0.200815f
c6 5 0 0.111032f
r7 32 34 44.775
r8 30 32 97.5
r9 27 30 22.725
r10 23 25 6.435
r11 22 25 6.165
r12 19 21 2.145
r13 18 21 2.055
r14 16 32 13.2552
r15 14 16 1.58317
r16 12 30 13.2552
r17 10 12 1.58317
r18 9 21 16.3327
r19 7 14 0.039111
r20 7 9 0.435167
r21 5 25 16.3327
r22 3 10 0.039111
r23 3 5 0.288167
.ends

.subckt PM_ADDER%XFA4/SB 18 19 22 23 27 34
c0 27 0 1.73952f
c1 16 0 0.618599f
c2 14 0 0.0307199f
c3 12 0 0.588286f
c4 10 0 0.0314967f
c5 7 0 0.200815f
c6 5 0 0.111032f
r7 32 34 44.775
r8 30 32 97.5
r9 27 30 22.725
r10 23 25 6.435
r11 22 25 6.165
r12 19 21 2.145
r13 18 21 2.055
r14 16 32 13.2552
r15 14 16 1.58317
r16 12 30 13.2552
r17 10 12 1.58317
r18 9 21 16.3327
r19 7 14 0.039111
r20 7 9 0.435167
r21 5 25 16.3327
r22 3 10 0.039111
r23 3 5 0.288167
.ends

.subckt PM_ADDER%GND 50 56 62 68 270 454 457 460 463 466 467 470 471 474 475 478
+ 479 482 483 486 487 490 491 494 495 498 499 502 503 506 507 510 511 514 515
+ 518 519 522 523 526 527
c0 268 0 0.0105698f
c1 266 0 0.0105698f
c2 264 0 0.0105698f
c3 262 0 0.0105698f
c4 260 0 0.0105698f
c5 258 0 0.0105698f
c6 256 0 0.0105698f
c7 254 0 0.0105698f
c8 252 0 0.0105698f
c9 250 0 0.0105698f
c10 248 0 0.0105698f
c11 246 0 0.0105698f
c12 244 0 0.0105698f
c13 242 0 0.0105698f
c14 240 0 0.0105698f
c15 238 0 0.0105698f
c16 236 0 0.0105698f
c17 234 0 0.0105698f
c18 232 0 0.0105698f
c19 230 0 0.0105698f
c20 227 0 0.015153f
c21 223 0 0.015153f
c22 219 0 0.015153f
c23 215 0 0.015153f
c24 211 0 0.158107f
c25 205 0 0.158107f
c26 199 0 0.158107f
c27 193 0 0.158107f
c28 185 0 0.00929016f
c29 181 0 0.00929016f
c30 177 0 0.00929016f
c31 173 0 0.00929016f
c32 171 0 0.17485f
c33 165 0 0.17485f
c34 159 0 0.17485f
c35 153 0 0.17485f
c36 145 0 0.00462446f
c37 141 0 0.00462446f
c38 137 0 0.00462446f
c39 133 0 0.00462446f
c40 131 0 0.152583f
c41 125 0 0.152583f
c42 119 0 0.152583f
c43 113 0 0.152583f
c44 105 0 0.00924892f
c45 101 0 0.00924892f
c46 97 0 0.00924892f
c47 93 0 0.00924892f
c48 91 0 0.17485f
c49 85 0 0.17485f
c50 79 0 0.17485f
c51 73 0 0.17485f
c52 63 0 0.0434159f
c53 57 0 0.0434159f
c54 51 0 0.0434159f
c55 45 0 0.0434159f
c56 43 0 0.162715f
c57 37 0 0.162715f
c58 31 0 0.162715f
c59 25 0 0.162715f
c60 17 0 0.0151543f
c61 13 0 0.0151543f
c62 9 0 0.0151543f
c63 5 0 0.015153f
r64 527 529 6.435
r65 526 529 6.165
r66 523 525 6.435
r67 522 525 6.165
r68 519 521 6.435
r69 518 521 6.165
r70 515 517 6.435
r71 514 517 6.165
r72 511 513 6.435
r73 510 513 6.165
r74 507 509 6.435
r75 506 509 6.165
r76 503 505 6.435
r77 502 505 6.165
r78 499 501 6.435
r79 498 501 6.165
r80 495 497 6.435
r81 494 497 6.165
r82 491 493 6.435
r83 490 493 6.165
r84 487 489 6.435
r85 486 489 6.165
r86 483 485 6.435
r87 482 485 6.165
r88 479 481 6.435
r89 478 481 6.165
r90 475 477 6.435
r91 474 477 6.165
r92 471 473 6.435
r93 470 473 6.165
r94 467 469 6.435
r95 466 469 6.165
r96 463 465 5.535
r97 460 462 5.535
r98 457 459 5.535
r99 454 456 5.535
r100 450 452 18
r101 448 450 72
r102 446 448 18
r103 440 442 18
r104 438 440 54
r105 436 438 18
r106 433 436 18
r107 428 430 18
r108 426 428 72
r109 424 426 18
r110 418 420 18
r111 416 418 54
r112 414 416 18
r113 411 414 18
r114 406 408 18
r115 404 406 72
r116 402 404 18
r117 396 398 18
r118 394 396 54
r119 392 394 18
r120 389 392 18
r121 384 386 18
r122 382 384 72
r123 380 382 18
r124 374 376 18
r125 372 374 54
r126 370 372 18
r127 367 370 18
r128 270 446 10.035
r129 270 442 7.965
r130 270 424 10.035
r131 270 420 7.965
r132 270 402 10.035
r133 270 398 7.965
r134 270 380 10.035
r135 270 376 7.965
r136 270 364 7.785
r137 270 359 10.206
r138 270 356 7.785
r139 270 351 10.206
r140 270 348 7.785
r141 270 343 10.206
r142 270 340 7.785
r143 270 335 10.206
r144 268 450 16.3327
r145 266 428 16.3327
r146 264 406 16.3327
r147 262 384 16.3327
r148 260 446 16.3327
r149 258 424 16.3327
r150 256 402 16.3327
r151 254 380 16.3327
r152 252 440 16.3327
r153 250 418 16.3327
r154 248 396 16.3327
r155 246 374 16.3327
r156 244 436 16.3327
r157 242 414 16.3327
r158 240 392 16.3327
r159 238 370 16.3327
r160 236 364 16.3327
r161 234 356 16.3327
r162 232 348 16.3327
r163 230 340 16.3327
r164 227 452 16.3327
r165 225 268 0.035
r166 225 227 0.435167
r167 223 430 16.3327
r168 221 266 0.035
r169 221 223 0.435167
r170 219 408 16.3327
r171 217 264 0.035
r172 217 219 0.435167
r173 215 386 16.3327
r174 213 262 0.035
r175 213 215 0.435167
r176 211 529 16.3327
r177 209 268 0.035
r178 209 211 0.575167
r179 205 525 16.3327
r180 203 266 0.035
r181 203 205 0.575167
r182 199 521 16.3327
r183 197 264 0.035
r184 197 199 0.575167
r185 193 517 16.3327
r186 191 262 0.035
r187 191 193 0.575167
r188 188 448 8.16635
r189 186 260 0.035
r190 186 188 0.435167
r191 185 268 0.035
r192 185 188 1.82817
r193 184 426 8.16635
r194 182 258 0.035
r195 182 184 0.435167
r196 181 266 0.035
r197 181 184 1.82817
r198 180 404 8.16635
r199 178 256 0.035
r200 178 180 0.435167
r201 177 264 0.035
r202 177 180 1.82817
r203 176 382 8.16635
r204 174 254 0.035
r205 174 176 0.435167
r206 173 262 0.035
r207 173 176 1.82817
r208 171 513 16.3327
r209 169 260 0.035
r210 169 171 0.575167
r211 165 509 16.3327
r212 163 258 0.035
r213 163 165 0.575167
r214 159 505 16.3327
r215 157 256 0.035
r216 157 159 0.575167
r217 153 501 16.3327
r218 151 254 0.035
r219 151 153 0.575167
r220 148 442 16.3327
r221 146 252 0.035
r222 146 148 0.435167
r223 145 260 0.035
r224 145 148 0.428167
r225 144 420 16.3327
r226 142 250 0.035
r227 142 144 0.435167
r228 141 258 0.035
r229 141 144 0.428167
r230 140 398 16.3327
r231 138 248 0.035
r232 138 140 0.435167
r233 137 256 0.035
r234 137 140 0.428167
r235 136 376 16.3327
r236 134 246 0.035
r237 134 136 0.435167
r238 133 254 0.035
r239 133 136 0.428167
r240 131 497 16.3327
r241 129 252 0.035
r242 129 131 0.575167
r243 125 493 16.3327
r244 123 250 0.035
r245 123 125 0.575167
r246 119 489 16.3327
r247 117 248 0.035
r248 117 119 0.575167
r249 113 485 16.3327
r250 111 246 0.035
r251 111 113 0.575167
r252 108 438 8.16635
r253 106 244 0.035
r254 106 108 0.435167
r255 105 252 0.035
r256 105 108 1.3615
r257 104 416 8.16635
r258 102 242 0.035
r259 102 104 0.435167
r260 101 250 0.035
r261 101 104 1.3615
r262 100 394 8.16635
r263 98 240 0.035
r264 98 100 0.435167
r265 97 248 0.035
r266 97 100 1.3615
r267 96 372 8.16635
r268 94 238 0.035
r269 94 96 0.435167
r270 93 246 0.035
r271 93 96 1.3615
r272 91 481 16.3327
r273 89 244 0.035
r274 89 91 0.575167
r275 85 477 16.3327
r276 83 242 0.035
r277 83 85 0.575167
r278 79 473 16.3327
r279 77 240 0.035
r280 77 79 0.575167
r281 73 469 16.3327
r282 71 238 0.035
r283 71 73 0.575167
r284 66 433 16.3327
r285 66 68 0.159833
r286 64 236 0.035
r287 64 66 0.551833
r288 63 244 0.035
r289 63 68 0.268333
r290 60 411 16.3327
r291 60 62 0.159833
r292 58 234 0.035
r293 58 60 0.551833
r294 57 242 0.035
r295 57 62 0.268333
r296 54 389 16.3327
r297 54 56 0.159833
r298 52 232 0.035
r299 52 54 0.551833
r300 51 240 0.035
r301 51 56 0.268333
r302 48 367 16.3327
r303 48 50 0.159833
r304 46 230 0.035
r305 46 48 0.551833
r306 45 238 0.035
r307 45 50 0.268333
r308 43 465 16.3327
r309 41 236 0.035
r310 41 43 0.575167
r311 37 462 16.3327
r312 35 234 0.035
r313 35 37 0.575167
r314 31 459 16.3327
r315 29 232 0.035
r316 29 31 0.575167
r317 25 456 16.3327
r318 23 230 0.035
r319 23 25 0.575167
r320 19 359 16.3327
r321 17 236 0.035
r322 17 19 0.427933
r323 15 351 16.3327
r324 13 234 0.035
r325 13 15 0.427933
r326 11 343 16.3327
r327 9 232 0.035
r328 9 11 0.427933
r329 7 335 16.3327
r330 5 230 0.035
r331 5 7 0.427933
.ends

.subckt PM_ADDER%VDD 50 56 62 68 273 274 275 276 337 340 343 346 349 350 353 354
+ 357 358 361 362 365 366 369 370 373 374 377 378 381 382 385 386 389 390 393
+ 394 397 398 401 402 405 406 409 410
c0 268 0 0.0105698f
c1 266 0 0.0105698f
c2 264 0 0.0105698f
c3 262 0 0.0105698f
c4 260 0 0.0105698f
c5 258 0 0.0105698f
c6 256 0 0.0105698f
c7 254 0 0.0105698f
c8 252 0 0.0105698f
c9 250 0 0.0105698f
c10 248 0 0.0105698f
c11 246 0 0.0105698f
c12 244 0 0.0105698f
c13 242 0 0.0105698f
c14 240 0 0.0105698f
c15 238 0 0.0105698f
c16 236 0 0.0105698f
c17 234 0 0.0105698f
c18 232 0 0.0105698f
c19 230 0 0.0105698f
c20 227 0 0.015153f
c21 223 0 0.015153f
c22 219 0 0.015153f
c23 215 0 0.015153f
c24 209 0 0.199263f
c25 203 0 0.199263f
c26 197 0 0.199263f
c27 191 0 0.199263f
c28 185 0 0.00929016f
c29 181 0 0.00929016f
c30 177 0 0.00929016f
c31 173 0 0.00929016f
c32 169 0 0.249494f
c33 163 0 0.249494f
c34 157 0 0.249494f
c35 151 0 0.249494f
c36 145 0 0.00462446f
c37 141 0 0.00462446f
c38 137 0 0.00462446f
c39 133 0 0.00462446f
c40 129 0 0.195385f
c41 123 0 0.195385f
c42 117 0 0.195385f
c43 111 0 0.195385f
c44 105 0 0.00924892f
c45 101 0 0.00924892f
c46 97 0 0.00924892f
c47 93 0 0.00924892f
c48 89 0 0.249494f
c49 83 0 0.249494f
c50 77 0 0.249494f
c51 71 0 0.249494f
c52 63 0 0.0434159f
c53 57 0 0.0434159f
c54 51 0 0.0434159f
c55 45 0 0.0434159f
c56 41 0 0.226471f
c57 35 0 0.226471f
c58 29 0 0.226471f
c59 23 0 0.226471f
c60 17 0 0.015153f
c61 13 0 0.0151543f
c62 9 0 0.0151543f
c63 5 0 0.0151543f
r64 529 531 18
r65 527 529 72
r66 525 527 18
r67 519 521 18
r68 517 519 54
r69 515 517 18
r70 512 515 18
r71 507 509 18
r72 505 507 72
r73 503 505 18
r74 497 499 18
r75 495 497 54
r76 493 495 18
r77 490 493 18
r78 485 487 18
r79 483 485 72
r80 481 483 18
r81 475 477 18
r82 473 475 54
r83 471 473 18
r84 468 471 18
r85 463 465 18
r86 461 463 72
r87 459 461 18
r88 453 455 18
r89 451 453 54
r90 449 451 18
r91 446 449 18
r92 410 412 2.145
r93 409 412 2.055
r94 406 408 2.145
r95 405 408 2.055
r96 402 404 2.145
r97 401 404 2.055
r98 398 400 2.145
r99 397 400 2.055
r100 394 396 2.145
r101 393 396 2.055
r102 390 392 2.145
r103 389 392 2.055
r104 386 388 2.145
r105 385 388 2.055
r106 382 384 2.145
r107 381 384 2.055
r108 378 380 2.145
r109 377 380 2.055
r110 374 376 2.145
r111 373 376 2.055
r112 370 372 2.145
r113 369 372 2.055
r114 366 368 2.145
r115 365 368 2.055
r116 362 364 2.145
r117 361 364 2.055
r118 358 360 2.145
r119 357 360 2.055
r120 354 356 2.145
r121 353 356 2.055
r122 350 352 2.145
r123 349 352 2.055
r124 346 348 4.80336
r125 343 345 4.80336
r126 340 342 4.80336
r127 337 339 4.80336
r128 276 525 10.035
r129 276 521 7.965
r130 276 443 7.785
r131 276 438 10.206
r132 275 503 10.035
r133 275 499 7.965
r134 275 435 7.785
r135 275 430 10.206
r136 274 481 10.035
r137 274 477 7.965
r138 274 427 7.785
r139 274 422 10.206
r140 273 459 10.035
r141 273 455 7.965
r142 273 419 7.785
r143 273 414 10.206
r144 268 529 16.3327
r145 266 507 16.3327
r146 264 485 16.3327
r147 262 463 16.3327
r148 260 525 16.3327
r149 258 503 16.3327
r150 256 481 16.3327
r151 254 459 16.3327
r152 252 519 16.3327
r153 250 497 16.3327
r154 248 475 16.3327
r155 246 453 16.3327
r156 244 515 16.3327
r157 242 493 16.3327
r158 240 471 16.3327
r159 238 449 16.3327
r160 236 443 16.3327
r161 234 435 16.3327
r162 232 427 16.3327
r163 230 419 16.3327
r164 227 531 16.3327
r165 225 268 0.035
r166 225 227 0.435167
r167 223 509 16.3327
r168 221 266 0.035
r169 221 223 0.435167
r170 219 487 16.3327
r171 217 264 0.035
r172 217 219 0.435167
r173 215 465 16.3327
r174 213 262 0.035
r175 213 215 0.435167
r176 209 412 16.3327
r177 207 268 0.035
r178 207 209 1.0115
r179 203 408 16.3327
r180 201 266 0.035
r181 201 203 1.0115
r182 197 404 16.3327
r183 195 264 0.035
r184 195 197 1.0115
r185 191 400 16.3327
r186 189 262 0.035
r187 189 191 1.0115
r188 188 527 8.16635
r189 186 260 0.035
r190 186 188 0.435167
r191 185 268 0.035
r192 185 188 1.82817
r193 184 505 8.16635
r194 182 258 0.035
r195 182 184 0.435167
r196 181 266 0.035
r197 181 184 1.82817
r198 180 483 8.16635
r199 178 256 0.035
r200 178 180 0.435167
r201 177 264 0.035
r202 177 180 1.82817
r203 176 461 8.16635
r204 174 254 0.035
r205 174 176 0.435167
r206 173 262 0.035
r207 173 176 1.82817
r208 169 396 16.3327
r209 167 260 0.035
r210 167 169 1.0115
r211 163 392 16.3327
r212 161 258 0.035
r213 161 163 1.0115
r214 157 388 16.3327
r215 155 256 0.035
r216 155 157 1.0115
r217 151 384 16.3327
r218 149 254 0.035
r219 149 151 1.0115
r220 148 521 16.3327
r221 146 252 0.035
r222 146 148 0.435167
r223 145 260 0.035
r224 145 148 0.428167
r225 144 499 16.3327
r226 142 250 0.035
r227 142 144 0.435167
r228 141 258 0.035
r229 141 144 0.428167
r230 140 477 16.3327
r231 138 248 0.035
r232 138 140 0.435167
r233 137 256 0.035
r234 137 140 0.428167
r235 136 455 16.3327
r236 134 246 0.035
r237 134 136 0.435167
r238 133 254 0.035
r239 133 136 0.428167
r240 129 380 16.3327
r241 127 252 0.035
r242 127 129 1.0115
r243 123 376 16.3327
r244 121 250 0.035
r245 121 123 1.0115
r246 117 372 16.3327
r247 115 248 0.035
r248 115 117 1.0115
r249 111 368 16.3327
r250 109 246 0.035
r251 109 111 1.0115
r252 108 517 8.16635
r253 106 244 0.035
r254 106 108 0.435167
r255 105 252 0.035
r256 105 108 1.3615
r257 104 495 8.16635
r258 102 242 0.035
r259 102 104 0.435167
r260 101 250 0.035
r261 101 104 1.3615
r262 100 473 8.16635
r263 98 240 0.035
r264 98 100 0.435167
r265 97 248 0.035
r266 97 100 1.3615
r267 96 451 8.16635
r268 94 238 0.035
r269 94 96 0.435167
r270 93 246 0.035
r271 93 96 1.3615
r272 89 364 16.3327
r273 87 244 0.035
r274 87 89 1.0115
r275 83 360 16.3327
r276 81 242 0.035
r277 81 83 1.0115
r278 77 356 16.3327
r279 75 240 0.035
r280 75 77 1.0115
r281 71 352 16.3327
r282 69 238 0.035
r283 69 71 1.0115
r284 66 512 16.3327
r285 66 68 0.183167
r286 64 236 0.035
r287 64 66 0.551833
r288 63 244 0.035
r289 63 68 0.245
r290 60 490 16.3327
r291 60 62 0.183167
r292 58 234 0.035
r293 58 60 0.551833
r294 57 242 0.035
r295 57 62 0.245
r296 54 468 16.3327
r297 54 56 0.183167
r298 52 232 0.035
r299 52 54 0.551833
r300 51 240 0.035
r301 51 56 0.245
r302 48 446 16.3327
r303 48 50 0.183167
r304 46 230 0.035
r305 46 48 0.551833
r306 45 238 0.035
r307 45 50 0.245
r308 41 348 16.3327
r309 39 236 0.035
r310 39 41 1.0115
r311 35 345 16.3327
r312 33 234 0.035
r313 33 35 1.0115
r314 29 342 16.3327
r315 27 232 0.035
r316 27 29 1.0115
r317 23 339 16.3327
r318 21 230 0.035
r319 21 23 1.0115
r320 19 438 16.3327
r321 17 236 0.035
r322 17 19 0.427933
r323 15 430 16.3327
r324 13 234 0.035
r325 13 15 0.427933
r326 11 422 16.3327
r327 9 232 0.035
r328 9 11 0.427933
r329 7 414 16.3327
r330 5 230 0.035
r331 5 7 0.427933
.ends

.subckt PM_ADDER%S1 6 10 14
c0 3 0 0.846717f
r1 14 16 6.435
r2 10 12 5.2103
r3 8 12 16.3327
r4 6 8 1.17017
r5 3 16 16.3327
r6 3 6 1.13983
.ends

.subckt PM_ADDER%S2 6 10 14
c0 3 0 0.846717f
r1 14 16 6.435
r2 10 12 5.2103
r3 8 12 16.3327
r4 6 8 1.17017